
 Fire Dynamics Simulator

 Compilation Date : Fri, 03 Feb 2012
 Version          : 6.0.0 Parallel

 OpenMP Disabled

 SVN Revision No. : 9977

 Job TITLE        : 
 Job ID string    : aws4_test


 Grid Dimensions, Mesh     1

   Cells in the X Direction           100
   Cells in the Y Direction           100
   Cells in the Z Direction            50


 Physical Dimensions, Mesh     1

   Length (m)                     1000.000
   Width  (m)                     1000.000
   Height (m)                      200.000
   Initial Time Step (s)             0.824

 Grid Dimensions, Mesh     2

   Cells in the X Direction           100
   Cells in the Y Direction           100
   Cells in the Z Direction            50


 Physical Dimensions, Mesh     2

   Length (m)                     1000.000
   Width  (m)                     1000.000
   Height (m)                      200.000
   Initial Time Step (s)             0.824

 Grid Dimensions, Mesh     3

   Cells in the X Direction           100
   Cells in the Y Direction           100
   Cells in the Z Direction            50


 Physical Dimensions, Mesh     3

   Length (m)                     1000.000
   Width  (m)                     1000.000
   Height (m)                      200.000
   Initial Time Step (s)             0.824

 Grid Dimensions, Mesh     4

   Cells in the X Direction           100
   Cells in the Y Direction           100
   Cells in the Z Direction            50


 Physical Dimensions, Mesh     4

   Length (m)                     1000.000
   Width  (m)                     1000.000
   Height (m)                      200.000
   Initial Time Step (s)             0.824


 Miscellaneous Parameters

   Simulation Start Time (s)          0.0
   Simulation End Time (s)           30.0
   LES Calculation
   Deardorff Model
   Turbulent Prandtl Number          0.50
   Ambient Temperature (C)          20.00


 Mass Fraction Transformation Matrix to Convert Species Mixtures (Columns) to Primitive Species (Rows)

                         AIR     
   AIR                   1.000000


 Primitive Species Information

   AIR                           
   Gas Species
   Lumped species component only
   Molecular Weight (g/mol)       28.84852
   Ambient Density (kg/m^3)       1.199


 Tracked (Lumped) Species Information

   AIR                           
   Background Species
   Molecular Weight (g/mol)       28.84852
   Ambient Density (kg/m^3)       1.199
   Initial Mass Fraction          1.000

   Sub Species                    Mass Fraction     Mole Fraction
   AIR                            1.000000E+00      1.000000E+00
 
   Viscosity (kg/m/s)   Ambient:  1.81E-05
                          500 C:  3.50E-05
                         1000 C:  4.84E-05
                         1500 C:  6.00E-05
   Therm. Cond. (W/m/K) Ambient:  3.64E-02
                          500 C:  7.65E-02
                         1000 C:  1.15E-01
                         1500 C:  1.49E-01
   Spec. Heat (J/kg/K)  Ambient:  1.01E+03
                          500 C:  1.09E+03
                         1000 C:  1.19E+03
                         1500 C:  1.24E+03
   Diff. Coeff. (m^2/s) Ambient:  2.00E-05
                          500 C:  1.04E-04
                         1000 C:  2.38E-04
                         1500 C:  4.12E-04


 Material Information


 Surface Conditions

   0 INERT (DEFAULT)

   1 INFLOW
     Normal Velocity (m/s)         -2.000
     Mixture  0 Mass Fraction         1.000

   2 OPEN
     Passive Vent to Atmosphere

   3 MIRROR
     Symmetry Plane

   4 INTERPOLATED

   5 PERIODIC

   6 HVAC


 Radiation Model Information

   Number of control angles  104
   Time step increment         3
   Angle increment             5
   Theta band N_phi   Solid angle
     1:        4  0.12
     2:       12  0.11
     3:       16  0.13
     4:       20  0.12
     5:       20  0.12
     6:       16  0.13
     7:       12  0.11
     8:        4  0.12
   Using gray gas absorption.
   Mean beam length -1.000 m
 
 

 Run Time Diagnostics

       Time Step       1   December 13, 2015  13:36:04
       ----------------------------------------------
       Mesh    1, Cycle       1
       CPU/step:     4.037 s, Total CPU:      4.04 s
       Time step:  0.57479 s, Total time:     0.57 s
       Max CFL number:  0.90E+00 at (  1, 51, 50)
       Max divergence:  0.29E-05 at (  2, 28, 50)
       Min divergence: -0.10E-05 at ( 24, 77, 41)
       Max VN  number:  0.31E-02 at ( 12, 47, 18)
       Mesh    2, Cycle       1
       CPU/step:     4.023 s, Total CPU:      4.02 s
       Time step:  0.57479 s, Total time:     0.57 s
       Max CFL number:  0.90E+00 at ( 57, 18, 42)
       Max divergence:  0.10E-05 at (  5, 29,  2)
       Min divergence: -0.10E-05 at ( 23, 77, 41)
       Max VN  number:  0.31E-02 at ( 11, 47, 18)
       Mesh    3, Cycle       1
       CPU/step:     4.040 s, Total CPU:      4.04 s
       Time step:  0.57479 s, Total time:     0.57 s
       Max CFL number:  0.90E+00 at (  1, 51, 50)
       Max divergence:  0.29E-05 at (  2, 33, 50)
       Min divergence: -0.10E-05 at (  2, 55, 49)
       Max VN  number:  0.31E-02 at ( 10, 47, 18)
       Mesh    4, Cycle       1
       CPU/step:     4.035 s, Total CPU:      4.04 s
       Time step:  0.57479 s, Total time:     0.57 s
       Max CFL number:  0.90E+00 at ( 55, 18, 42)
       Max divergence:  0.10E-05 at (  3, 29,  2)
       Min divergence: -0.10E-05 at ( 21, 77, 41)
       Max VN  number:  0.31E-02 at (  9, 47, 18)
 
       Time Step       2   December 13, 2015  13:36:05
       ----------------------------------------------
       Mesh    1, Cycle       2
       CPU/step:     0.945 s, Total CPU:      4.98 s
       Time step:  0.57479 s, Total time:     1.15 s
       Max CFL number:  0.90E+00 at (  1, 48, 50)
       Max divergence:  0.21E-03 at (  1, 50, 50)
       Min divergence: -0.93E-06 at ( 98, 72,  7)
       Max VN  number:  0.59E-01 at (  2,100,  3)
       Mesh    2, Cycle       2
       CPU/step:     0.946 s, Total CPU:      4.97 s
       Time step:  0.57479 s, Total time:     1.15 s
       Max CFL number:  0.90E+00 at ( 57, 18, 42)
       Max divergence:  0.10E-05 at (  5, 29,  2)
       Min divergence: -0.10E-05 at ( 23, 77, 41)
       Max VN  number:  0.31E-02 at ( 11, 47, 18)
       Mesh    3, Cycle       2
       CPU/step:     0.948 s, Total CPU:      4.99 s
       Time step:  0.57479 s, Total time:     1.15 s
       Max CFL number:  0.90E+00 at (  1, 48, 50)
       Max divergence:  0.21E-03 at (  1, 48, 50)
       Min divergence: -0.92E-06 at ( 96, 72,  7)
       Max VN  number:  0.59E-01 at (  2,  1,  2)
       Mesh    4, Cycle       2
       CPU/step:     0.946 s, Total CPU:      4.98 s
       Time step:  0.57479 s, Total time:     1.15 s
       Max CFL number:  0.90E+00 at ( 55, 18, 42)
       Max divergence:  0.10E-05 at (  3, 29,  2)
       Min divergence: -0.10E-05 at ( 21, 77, 41)
       Max VN  number:  0.31E-02 at (  9, 47, 18)
 
       Time Step       3   December 13, 2015  13:36:06
       ----------------------------------------------
       Mesh    1, Cycle       3
       CPU/step:     0.990 s, Total CPU:      5.97 s
       Time step:  0.57479 s, Total time:     1.72 s
       Max CFL number:  0.90E+00 at (  0, 52, 50)
       Max divergence:  0.31E-03 at (  1, 52, 50)
       Min divergence: -0.92E-06 at ( 98, 72,  7)
       Max VN  number:  0.78E-01 at (  2,100,  3)
       Mesh    2, Cycle       3
       CPU/step:     0.984 s, Total CPU:      5.95 s
       Time step:  0.57479 s, Total time:     1.72 s
       Max CFL number:  0.90E+00 at ( 57, 18, 42)
       Max divergence:  0.10E-05 at (  5, 29,  2)
       Min divergence: -0.10E-05 at ( 23, 77, 41)
       Max VN  number:  0.31E-02 at ( 11, 47, 18)
       Mesh    3, Cycle       3
       CPU/step:     0.994 s, Total CPU:      5.98 s
       Time step:  0.57479 s, Total time:     1.72 s
       Max CFL number:  0.90E+00 at (  0, 48, 50)
       Max divergence:  0.31E-03 at (  1, 48, 50)
       Min divergence: -0.92E-06 at ( 96, 72,  7)
       Max VN  number:  0.78E-01 at (  2,  1,  2)
       Mesh    4, Cycle       3
       CPU/step:     0.985 s, Total CPU:      5.97 s
       Time step:  0.57479 s, Total time:     1.72 s
       Max CFL number:  0.90E+00 at ( 55, 18, 42)
       Max divergence:  0.10E-05 at (  3, 29,  2)
       Min divergence: -0.10E-05 at ( 21, 77, 41)
       Max VN  number:  0.31E-02 at (  9, 47, 18)
 
       Time Step       4   December 13, 2015  13:36:08
       ----------------------------------------------
       Mesh    1, Cycle       4
       CPU/step:     1.555 s, Total CPU:      7.53 s
       Time step:  0.57479 s, Total time:     2.30 s
       Max CFL number:  0.90E+00 at (  0, 52, 50)
       Max divergence:  0.32E-03 at (  1, 52, 50)
       Min divergence: -0.92E-06 at ( 98, 72,  7)
       Max VN  number:  0.67E-01 at (  2,100,  3)
       Mesh    2, Cycle       4
       CPU/step:     1.564 s, Total CPU:      7.52 s
       Time step:  0.57479 s, Total time:     2.30 s
       Max CFL number:  0.90E+00 at ( 57, 18, 42)
       Max divergence:  0.10E-05 at (  5, 29,  2)
       Min divergence: -0.10E-05 at ( 23, 77, 41)
       Max VN  number:  0.31E-02 at ( 11, 47, 18)
       Mesh    3, Cycle       4
       CPU/step:     1.564 s, Total CPU:      7.55 s
       Time step:  0.57479 s, Total time:     2.30 s
       Max CFL number:  0.90E+00 at (  0, 48, 50)
       Max divergence:  0.32E-03 at (  1, 48, 50)
       Min divergence: -0.92E-06 at ( 95, 87, 11)
       Max VN  number:  0.67E-01 at (  2,  1,  2)
       Mesh    4, Cycle       4
       CPU/step:     1.555 s, Total CPU:      7.52 s
       Time step:  0.57479 s, Total time:     2.30 s
       Max CFL number:  0.90E+00 at ( 55, 18, 42)
       Max divergence:  0.10E-05 at (  3, 29,  2)
       Min divergence: -0.10E-05 at ( 21, 77, 41)
       Max VN  number:  0.31E-02 at (  9, 47, 18)
 
       Time Step       5   December 13, 2015  13:36:09
       ----------------------------------------------
       Mesh    1, Cycle       5
       CPU/step:     1.023 s, Total CPU:      8.55 s
       Time step:  0.57479 s, Total time:     2.87 s
       Max CFL number:  0.90E+00 at (  0, 52, 50)
       Max divergence:  0.31E-03 at (  2, 52, 50)
       Min divergence: -0.92E-06 at ( 98, 72,  7)
       Max VN  number:  0.45E-01 at (  4,100,  8)
       Mesh    2, Cycle       5
       CPU/step:     1.024 s, Total CPU:      8.54 s
       Time step:  0.57479 s, Total time:     2.87 s
       Max CFL number:  0.90E+00 at ( 57, 18, 42)
       Max divergence:  0.10E-05 at (  5, 29,  2)
       Min divergence: -0.10E-05 at ( 23, 77, 41)
       Max VN  number:  0.31E-02 at ( 11, 47, 18)
       Mesh    3, Cycle       5
       CPU/step:     1.020 s, Total CPU:      8.57 s
       Time step:  0.57479 s, Total time:     2.87 s
       Max CFL number:  0.90E+00 at (  0, 48, 50)
       Max divergence:  0.31E-03 at (  2, 46, 50)
       Min divergence: -0.92E-06 at ( 95, 87, 11)
       Max VN  number:  0.45E-01 at (  4,  1, 10)
       Mesh    4, Cycle       5
       CPU/step:     1.021 s, Total CPU:      8.54 s
       Time step:  0.57479 s, Total time:     2.87 s
       Max CFL number:  0.90E+00 at ( 55, 18, 42)
       Max divergence:  0.10E-05 at (  3, 29,  2)
       Min divergence: -0.10E-05 at ( 21, 77, 41)
       Max VN  number:  0.31E-02 at (  9, 47, 18)
 
       Time Step       6   December 13, 2015  13:36:10
       ----------------------------------------------
       Mesh    1, Cycle       6
       CPU/step:     1.014 s, Total CPU:      9.56 s
       Time step:  0.57479 s, Total time:     3.45 s
       Max CFL number:  0.90E+00 at (  0,100, 50)
       Max divergence:  0.31E-03 at (  2, 52, 50)
       Min divergence: -0.92E-06 at ( 98, 72,  7)
       Max VN  number:  0.37E-01 at (  2, 49, 50)
       Mesh    2, Cycle       6
       CPU/step:     1.013 s, Total CPU:      9.55 s
       Time step:  0.57479 s, Total time:     3.45 s
       Max CFL number:  0.90E+00 at ( 57, 18, 42)
       Max divergence:  0.10E-05 at (  5, 29,  2)
       Min divergence: -0.10E-05 at ( 23, 77, 41)
       Max VN  number:  0.31E-02 at ( 11, 47, 18)
       Mesh    3, Cycle       6
       CPU/step:     1.023 s, Total CPU:      9.59 s
       Time step:  0.57479 s, Total time:     3.45 s
       Max CFL number:  0.90E+00 at (  0,  1, 50)
       Max divergence:  0.31E-03 at (  2, 41, 50)
       Min divergence: -0.92E-06 at ( 95, 87, 11)
       Max VN  number:  0.37E-01 at (  2, 57, 50)
       Mesh    4, Cycle       6
       CPU/step:     1.017 s, Total CPU:      9.56 s
       Time step:  0.57479 s, Total time:     3.45 s
       Max CFL number:  0.90E+00 at ( 55, 18, 42)
       Max divergence:  0.10E-05 at (  3, 29,  2)
       Min divergence: -0.10E-05 at ( 21, 77, 41)
       Max VN  number:  0.31E-02 at (  9, 47, 18)
 
       Time Step       7   December 13, 2015  13:36:11
       ----------------------------------------------
       Mesh    1, Cycle       7
       CPU/step:     1.514 s, Total CPU:     11.08 s
       Time step:  0.57479 s, Total time:     4.02 s
       Max CFL number:  0.90E+00 at (  0,100, 50)
       Max divergence:  0.34E-03 at (  2,100, 50)
       Min divergence: -0.92E-06 at ( 98, 72,  7)
       Max VN  number:  0.44E-01 at (  2, 37, 50)
       Mesh    2, Cycle       7
       CPU/step:     1.511 s, Total CPU:     11.06 s
       Time step:  0.57479 s, Total time:     4.02 s
       Max CFL number:  0.90E+00 at ( 57, 18, 42)
       Max divergence:  0.10E-05 at (  5, 29,  2)
       Min divergence: -0.10E-05 at ( 23, 77, 41)
       Max VN  number:  0.31E-02 at ( 11, 47, 18)
       Mesh    3, Cycle       7
       CPU/step:     1.513 s, Total CPU:     11.10 s
       Time step:  0.57479 s, Total time:     4.02 s
       Max CFL number:  0.90E+00 at (  0,  1, 50)
       Max divergence:  0.34E-03 at (  2,  1, 50)
       Min divergence: -0.92E-06 at ( 95, 87, 11)
       Max VN  number:  0.44E-01 at (  2, 50, 49)
       Mesh    4, Cycle       7
       CPU/step:     1.512 s, Total CPU:     11.07 s
       Time step:  0.57479 s, Total time:     4.02 s
       Max CFL number:  0.90E+00 at ( 55, 18, 42)
       Max divergence:  0.10E-05 at (  3, 29,  2)
       Min divergence: -0.10E-05 at ( 21, 77, 41)
       Max VN  number:  0.31E-02 at (  9, 47, 18)
 
       Time Step       8   December 13, 2015  13:36:12
       ----------------------------------------------
       Mesh    1, Cycle       8
       CPU/step:     0.970 s, Total CPU:     12.05 s
       Time step:  0.57479 s, Total time:     4.60 s
       Max CFL number:  0.90E+00 at (  0,100, 50)
       Max divergence:  0.37E-03 at (  2,100, 50)
       Min divergence: -0.91E-06 at ( 98, 72,  7)
       Max VN  number:  0.49E-01 at (  2, 61, 49)
       Mesh    2, Cycle       8
       CPU/step:     0.962 s, Total CPU:     12.03 s
       Time step:  0.57479 s, Total time:     4.60 s
       Max CFL number:  0.90E+00 at ( 57, 18, 42)
       Max divergence:  0.10E-05 at (  5, 29,  2)
       Min divergence: -0.10E-05 at ( 23, 77, 41)
       Max VN  number:  0.31E-02 at ( 11, 47, 18)
       Mesh    3, Cycle       8
       CPU/step:     0.967 s, Total CPU:     12.07 s
       Time step:  0.57479 s, Total time:     4.60 s
       Max CFL number:  0.90E+00 at (  0,  1, 50)
       Max divergence:  0.37E-03 at (  2,  1, 50)
       Min divergence: -0.92E-06 at ( 95, 87, 11)
       Max VN  number:  0.49E-01 at (  2, 44, 49)
       Mesh    4, Cycle       8
       CPU/step:     0.967 s, Total CPU:     12.04 s
       Time step:  0.57479 s, Total time:     4.60 s
       Max CFL number:  0.90E+00 at ( 55, 18, 42)
       Max divergence:  0.10E-05 at (  3, 29,  2)
       Min divergence: -0.10E-05 at ( 21, 77, 41)
       Max VN  number:  0.31E-02 at (  9, 47, 18)
 
       Time Step       9   December 13, 2015  13:36:13
       ----------------------------------------------
       Mesh    1, Cycle       9
       CPU/step:     0.950 s, Total CPU:     13.00 s
       Time step:  0.57479 s, Total time:     5.17 s
       Max CFL number:  0.90E+00 at (  0,100, 50)
       Max divergence:  0.38E-03 at (  2,100, 50)
       Min divergence: -0.91E-06 at ( 98, 72,  7)
       Max VN  number:  0.55E-01 at (  2,100, 49)
       Mesh    2, Cycle       9
       CPU/step:     0.946 s, Total CPU:     12.97 s
       Time step:  0.57479 s, Total time:     5.17 s
       Max CFL number:  0.90E+00 at ( 57, 18, 42)
       Max divergence:  0.10E-05 at (  5, 29,  2)
       Min divergence: -0.10E-05 at ( 23, 77, 41)
       Max VN  number:  0.31E-02 at ( 11, 47, 18)
       Mesh    3, Cycle       9
       CPU/step:     0.936 s, Total CPU:     13.00 s
       Time step:  0.57479 s, Total time:     5.17 s
       Max CFL number:  0.90E+00 at (  0,  1, 50)
       Max divergence:  0.38E-03 at (  2,  1, 50)
       Min divergence: -0.91E-06 at ( 95, 87, 11)
       Max VN  number:  0.55E-01 at (  2,  1, 49)
       Mesh    4, Cycle       9
       CPU/step:     0.944 s, Total CPU:     12.98 s
       Time step:  0.57479 s, Total time:     5.17 s
       Max CFL number:  0.90E+00 at ( 55, 18, 42)
       Max divergence:  0.10E-05 at (  3, 29,  2)
       Min divergence: -0.10E-05 at ( 21, 77, 41)
       Max VN  number:  0.31E-02 at (  9, 47, 18)
 
       Time Step      10   December 13, 2015  13:36:15
       ----------------------------------------------
       Mesh    1, Cycle      10
       CPU/step:     1.495 s, Total CPU:     14.49 s
       Time step:  0.57479 s, Total time:     5.75 s
       Max CFL number:  0.90E+00 at (  2,100, 50)
       Max divergence:  0.38E-03 at (  2,100, 50)
       Min divergence: -0.91E-06 at ( 98, 72,  7)
       Max VN  number:  0.59E-01 at (  2,100, 49)
       Mesh    2, Cycle      10
       CPU/step:     1.493 s, Total CPU:     14.47 s
       Time step:  0.57479 s, Total time:     5.75 s
       Max CFL number:  0.90E+00 at ( 57, 18, 42)
       Max divergence:  0.10E-05 at (  5, 29,  2)
       Min divergence: -0.10E-05 at ( 23, 77, 41)
       Max VN  number:  0.31E-02 at ( 11, 47, 18)
       Mesh    3, Cycle      10
       CPU/step:     1.495 s, Total CPU:     14.50 s
       Time step:  0.57479 s, Total time:     5.75 s
       Max CFL number:  0.90E+00 at (  2,  0, 49)
       Max divergence:  0.38E-03 at (  2,  1, 50)
       Min divergence: -0.91E-06 at ( 95, 87, 11)
       Max VN  number:  0.60E-01 at (  2,  1, 49)
       Mesh    4, Cycle      10
       CPU/step:     1.485 s, Total CPU:     14.47 s
       Time step:  0.57479 s, Total time:     5.75 s
       Max CFL number:  0.90E+00 at ( 55, 18, 42)
       Max divergence:  0.10E-05 at (  3, 29,  2)
       Min divergence: -0.10E-05 at ( 21, 77, 41)
       Max VN  number:  0.31E-02 at (  9, 47, 18)
 
       Time Step      20   December 13, 2015  13:36:26
       ----------------------------------------------
       Mesh    1, Cycle      20
       CPU/step:     1.111 s, Total CPU:     25.60 s
       Time step:  0.57479 s, Total time:    11.50 s
       Max CFL number:  0.90E+00 at (  4, 75, 50)
       Max divergence:  0.24E-03 at (  4, 79, 50)
       Min divergence: -0.40E-04 at (  1,100, 39)
       Max VN  number:  0.54E-01 at (  2,  2, 49)
       Mesh    2, Cycle      20
       CPU/step:     1.107 s, Total CPU:     25.53 s
       Time step:  0.57479 s, Total time:    11.50 s
       Max CFL number:  0.90E+00 at ( 57, 18, 42)
       Max divergence:  0.10E-05 at ( 14, 95, 26)
       Min divergence: -0.98E-06 at ( 23, 77, 41)
       Max VN  number:  0.31E-02 at ( 11, 47, 18)
       Mesh    3, Cycle      20
       CPU/step:     1.111 s, Total CPU:     25.61 s
       Time step:  0.57479 s, Total time:    11.50 s
       Max CFL number:  0.90E+00 at (  4, 26, 50)
       Max divergence:  0.24E-03 at (  4, 21, 50)
       Min divergence: -0.40E-04 at (  1,  1, 39)
       Max VN  number:  0.55E-01 at (  2, 99, 49)
       Mesh    4, Cycle      20
       CPU/step:     1.107 s, Total CPU:     25.54 s
       Time step:  0.57479 s, Total time:    11.50 s
       Max CFL number:  0.90E+00 at ( 55, 18, 42)
       Max divergence:  0.10E-05 at (  3, 29,  2)
       Min divergence: -0.99E-06 at ( 21, 77, 41)
       Max VN  number:  0.31E-02 at (  9, 47, 18)
 
       Time Step      30   December 13, 2015  13:36:38
       ----------------------------------------------
       Mesh    1, Cycle      30
       CPU/step:     1.200 s, Total CPU:     37.60 s
       Time step:  0.57479 s, Total time:    17.24 s
       Max CFL number:  0.90E+00 at (  5, 58, 50)
       Max divergence:  0.22E-03 at (  5, 58, 50)
       Min divergence: -0.18E-04 at (  1,100, 44)
       Max VN  number:  0.60E-01 at (  3,  2, 49)
       Mesh    2, Cycle      30
       CPU/step:     1.199 s, Total CPU:     37.52 s
       Time step:  0.57479 s, Total time:    17.24 s
       Max CFL number:  0.90E+00 at ( 57, 18, 42)
       Max divergence:  0.10E-05 at ( 14, 95, 26)
       Min divergence: -0.97E-06 at ( 23, 77, 41)
       Max VN  number:  0.30E-02 at ( 11, 47, 18)
       Mesh    3, Cycle      30
       CPU/step:     1.198 s, Total CPU:     37.59 s
       Time step:  0.57479 s, Total time:    17.24 s
       Max CFL number:  0.90E+00 at (  5, 42, 50)
       Max divergence:  0.22E-03 at (  5, 43, 50)
       Min divergence: -0.18E-04 at (  1,  1, 44)
       Max VN  number:  0.60E-01 at (  3, 99, 49)
       Mesh    4, Cycle      30
       CPU/step:     1.196 s, Total CPU:     37.50 s
       Time step:  0.57479 s, Total time:    17.24 s
       Max CFL number:  0.90E+00 at ( 55, 18, 42)
       Max divergence:  0.10E-05 at (  3, 29,  2)
       Min divergence: -0.98E-06 at ( 21, 77, 41)
       Max VN  number:  0.30E-02 at (  9, 47, 18)
 
       Time Step      40   December 13, 2015  13:36:51
       ----------------------------------------------
       Mesh    1, Cycle      40
       CPU/step:     1.192 s, Total CPU:     49.52 s
       Time step:  0.57479 s, Total time:    22.99 s
       Max CFL number:  0.90E+00 at (  6,100, 50)
       Max divergence:  0.22E-03 at (  6,100, 50)
       Min divergence: -0.11E-04 at (  2,  2, 44)
       Max VN  number:  0.71E-01 at (  4,  2, 47)
       Mesh    2, Cycle      40
       CPU/step:     1.188 s, Total CPU:     49.39 s
       Time step:  0.57479 s, Total time:    22.99 s
       Max CFL number:  0.90E+00 at ( 57, 18, 42)
       Max divergence:  0.10E-05 at (  5, 29,  2)
       Min divergence: -0.97E-06 at ( 23, 77, 41)
       Max VN  number:  0.30E-02 at ( 11, 47, 18)
       Mesh    3, Cycle      40
       CPU/step:     1.190 s, Total CPU:     49.49 s
       Time step:  0.57479 s, Total time:    22.99 s
       Max CFL number:  0.90E+00 at (  6,  0, 50)
       Max divergence:  0.22E-03 at (  6,  1, 50)
       Min divergence: -0.11E-04 at (  2, 99, 45)
       Max VN  number:  0.71E-01 at (  4, 99, 47)
       Mesh    4, Cycle      40
       CPU/step:     1.190 s, Total CPU:     49.40 s
       Time step:  0.57479 s, Total time:    22.99 s
       Max CFL number:  0.90E+00 at ( 55, 18, 42)
       Max divergence:  0.10E-05 at (  3, 29,  2)
       Min divergence: -0.96E-06 at ( 21, 77, 41)
       Max VN  number:  0.30E-02 at (  9, 47, 18)
 
       Time Step      50   December 13, 2015  13:37:02
       ----------------------------------------------
       Mesh    1, Cycle      50
       CPU/step:     1.089 s, Total CPU:      1.01 min
       Time step:  0.57479 s, Total time:    28.74 s
       Max CFL number:  0.90E+00 at (  7, 57, 50)
       Max divergence:  0.19E-03 at (  7, 57, 50)
       Min divergence: -0.15E-04 at (  2, 99, 45)
       Max VN  number:  0.70E-01 at (  5,  2, 47)
       Mesh    2, Cycle      50
       CPU/step:     1.088 s, Total CPU:      1.00 min
       Time step:  0.57479 s, Total time:    28.74 s
       Max CFL number:  0.90E+00 at ( 74,  9, 32)
       Max divergence:  0.10E-05 at (  3, 89, 38)
       Min divergence: -0.91E-06 at ( 23, 77, 41)
       Max VN  number:  0.30E-02 at ( 11, 47, 18)
       Mesh    3, Cycle      50
       CPU/step:     1.092 s, Total CPU:      1.01 min
       Time step:  0.57479 s, Total time:    28.74 s
       Max CFL number:  0.90E+00 at (  7, 47, 50)
       Max divergence:  0.19E-03 at (  7, 47, 50)
       Min divergence: -0.15E-04 at (  2,  1, 45)
       Max VN  number:  0.70E-01 at (  5, 99, 47)
       Mesh    4, Cycle      50
       CPU/step:     1.087 s, Total CPU:      1.00 min
       Time step:  0.57479 s, Total time:    28.74 s
       Max CFL number:  0.90E+00 at ( 72,  9, 32)
       Max divergence:  0.10E-05 at (  3, 29,  2)
       Min divergence: -0.93E-06 at ( 21, 77, 41)
       Max VN  number:  0.30E-02 at (  9, 47, 18)
 
       Time Step      53   December 13, 2015  13:37:05
       ----------------------------------------------
       Mesh    1, Cycle      53
       CPU/step:     1.095 s, Total CPU:      1.06 min
       Time step:  0.57479 s, Total time:    30.46 s
       Max CFL number:  0.90E+00 at (  7, 57, 50)
       Max divergence:  0.19E-03 at (  7, 57, 50)
       Min divergence: -0.15E-04 at (  2, 99, 45)
       Max VN  number:  0.68E-01 at (  5,  2, 47)
       Mesh    2, Cycle      53
       CPU/step:     1.089 s, Total CPU:      1.06 min
       Time step:  0.57479 s, Total time:    30.46 s
       Max CFL number:  0.90E+00 at (  3, 89, 37)
       Max divergence:  0.10E-05 at (  3, 89, 38)
       Min divergence: -0.91E-06 at ( 23, 77, 41)
       Max VN  number:  0.30E-02 at ( 11, 47, 18)
       Mesh    3, Cycle      53
       CPU/step:     1.092 s, Total CPU:      1.06 min
       Time step:  0.57479 s, Total time:    30.46 s
       Max CFL number:  0.90E+00 at (  7, 47, 50)
       Max divergence:  0.19E-03 at (  7, 47, 50)
       Min divergence: -0.15E-04 at (  2,  1, 45)
       Max VN  number:  0.68E-01 at (  5, 99, 47)
       Mesh    4, Cycle      53
       CPU/step:     1.091 s, Total CPU:      1.06 min
       Time step:  0.57479 s, Total time:    30.46 s
       Max CFL number:  0.90E+00 at ( 72,  9, 32)
       Max divergence:  0.10E-05 at (  3, 29,  2)
       Min divergence: -0.93E-06 at ( 21, 77, 41)
       Max VN  number:  0.30E-02 at (  9, 47, 18)
 


 CPU Time Usage, Mesh   1

                 CPU (s)        %  
       ----------------------------
       MAIN        64.33     100.00
       DIVG         6.85      10.65
       MASS         7.36      11.45
       VELO        23.99      37.29
       PRES         8.25      12.83
       WALL         1.60       2.48
       DUMP         0.48       0.75
       PART         0.00       0.00
       RADI        13.94      21.67
       FIRE         0.00       0.00
       COMM         1.22       1.90
       SubTot      63.70      99.01


 CPU Time Usage, Mesh   2

                 CPU (s)        %  
       ----------------------------
       MAIN        64.46     100.00
       DIVG         6.86      10.65
       MASS         7.05      10.93
       VELO        23.80      36.93
       PRES         8.31      12.89
       WALL         1.47       2.28
       DUMP         0.59       0.91
       PART         0.00       0.00
       RADI        13.52      20.97
       FIRE         0.00       0.00
       COMM         1.95       3.02
       SubTot      63.54      98.57


 CPU Time Usage, Mesh   3

                 CPU (s)        %  
       ----------------------------
       MAIN        64.46     100.00
       DIVG         6.88      10.68
       MASS         7.44      11.54
       VELO        23.92      37.10
       PRES         8.23      12.76
       WALL         1.56       2.42
       DUMP         0.46       0.71
       PART         0.00       0.00
       RADI        13.83      21.45
       FIRE         0.00       0.00
       COMM         1.36       2.11
       SubTot      63.68      98.79


 CPU Time Usage, Mesh   4

                 CPU (s)        %  
       ----------------------------
       MAIN        64.39     100.00
       DIVG         6.95      10.80
       MASS         7.09      11.01
       VELO        23.69      36.79
       PRES         8.31      12.91
       WALL         1.46       2.27
       DUMP         0.62       0.96
       PART         0.00       0.00
       RADI        13.52      21.00
       FIRE         0.00       0.00
       COMM         1.89       2.94
       SubTot      63.54      98.68


 Time Stepping Wall Clock Time (s):       65.059
 Total Elapsed Wall Clock Time (s):       65.576

STOP: FDS completed successfully
